cases/offshore/ieee14_gentrip_out.txt
ANDES 2018.06.21-dev
Copyright (C) 2015-2018 Hantao Cui

ANDES comes with ABSOLUTELY NO WARRANTY
Use this software AT YOUR OWN RISK

Case file: /home/hcui7/repos/andes_github/cases/offshore/ieee14_gentrip.dm
Report Time: 06/22/2018 04:58:28 PM

Power flow method: NR
Number of iterations: 5
Flat-start: No

SUMMARY:
Buses                     14
Generators                 5
Committed Gens             0
Loads                     11
Shunts                     1
Lines                     20
Transformers               4
Areas                      2

EXTENDED SUMMARY:
                      P (pu)        Q (pu)

Generation             2.075        0.6567
Load                    2.59         0.735
Shunt Inj                  0       0.09505
Losses               0.08479       0.01681
Line Charging        0.04772        0.2786

BUS DATA:
                      Vm(pu)       Va(deg)       Pg (pu)       Qg (pu)       Pl (pu)       Ql (pu)

1.0-Bus 1               1.06             0         1.675      -0.08163             0             0
2.0-Bus 2              1.045        -3.603           0.4        0.2509         0.217         0.127
3.0-Bus 3               1.01        -10.44             0        0.1904         0.942          0.19
4.0-Bus 4              1.027        -7.391            -0            -0         0.478        -0.039
5.0-Bus 5              1.029        -5.999            -0             0         0.076         0.016
6.0-Bus 6               1.07        -7.486            -0         0.142         0.112         0.075
7.0-Bus 7              1.065        -8.503             0            -0             0             0
8.0-Bus 8               1.09        -8.503             0        0.1551             0             0
9.0-Bus 9              1.057        -9.084            -0             0         0.295      -0.04643
10.0-Bus 10            1.052        -9.089            -0            -0          0.09         0.058
11.0-Bus 11            1.057        -8.427             0            -0         0.035         0.018
12.0-Bus 12            1.056        -7.286             0            -0         0.061         0.016
13.0-Bus 13             1.06        -6.349            -0            -0       -0.1644        0.1754
14.0-Bus 14            1.061        -6.532             0            -0        -0.151          0.05

NODE DATA:
                       V(pu)

Node 0                    -0
Node 1                     1
Node 2                     1
Node 3                     1
Node 4                     1

LINE DATA:
                    From Bus        To Bus   P From (pu)   Q From (pu)     P To (pu)      Q To(pu)    P Loss(pu)    Q Loss(pu)

Line_1                     1             2         1.153       -0.1015         -1.13        0.1133       0.02301       0.01176
Line_10                    5             6        0.1217        0.1509       -0.1217       -0.1431             0       0.00777
Line_11                    6            11         0.103       0.02033       -0.1021      -0.01842       0.00091       0.00191
Line_12                    6            12       0.01018       0.05329      -0.00987      -0.05264       0.00031       0.00065
Line_13                    6            13       -0.1036        0.1364        0.1052       -0.1331       0.00169       0.00334
Line_14                    7             8             0       -0.1515             0        0.1551             0       0.00356
Line_15                    7             9        0.1038       0.07363       -0.1038      -0.07206             0       0.00157
Line_16                    9            10       0.02331       0.05866       -0.0232      -0.05836       0.00011        0.0003
Line_17                    9            14        -0.155       0.06316        0.1582      -0.05638       0.00319       0.00678
Line_18                   10            11       -0.0668       0.00036       0.06713       0.00042       0.00033       0.00078
Line_19                   12            13      -0.05113       0.03664       0.05192      -0.03593       0.00079       0.00071
Line_2                     1             5        0.5226       0.01989       -0.5094      -0.01892       0.01324       0.00097
Line_20                   13            14       0.00722      -0.00635      -0.00721       0.00638         1e-05         3e-05
Line_3                     2             3        0.6505        0.0443       -0.6321        -0.013       0.01841        0.0313
Line_4                     2             4        0.3987      -0.03038       -0.3903       0.01593       0.00846      -0.01445
Line_5                     2             5        0.2636      -0.00329       -0.2599      -0.02217       0.00363      -0.02546
Line_6                     3             4       -0.3099       0.01342        0.3163      -0.03304       0.00637      -0.01962
Line_7                     4             5       -0.5673        0.1258        0.5716       -0.1258        0.0043         4e-05
Line_8                     4             7        0.1038      -0.07477       -0.1038       0.07787             0        0.0031
Line_9                     4             9       0.05952       0.00509      -0.05952      -0.00332             0       0.00177

OTHER ALGEBRAIC VARIABLES:
                            

Vdc Node 0                -0
Vdc Node 1                 1
Vdc Node 2                 1
Vdc Node 3                 1
Vdc Node 4                 1
I Ground 1                 0
Q PV Bus 2            0.2509
Q PV Bus 3            0.1904
Q PV Bus 6             0.142
Q PV Bus 8            0.1551
Q SW_Bus_1          -0.08163
P SW_Bus_1             1.675
Idc C 1                    0
Idc C 2                    0
Idc C 3                    0
Idc C 4                    0
Idc RLs 1-2         -0.00022
Idc RLs 2-4              0.3
Idc RLs 3-4           -7e-05
Idc RLs 1-3           0.2998
ash VSC 1            0.02902
vsh VSC 1              1.015
psh VSC 1             0.2994
qsh VSC 1            -0.1174
pdc VSC 1             0.2996
Ish VSC 1             0.3034
ash VSC 2           -0.09803
vsh VSC 2              1.062
psh VSC 2                0.3
qsh VSC 2                 -0
pdc VSC 2             0.3002
Ish VSC 2             0.2828
p Syn 1                1.675
q Syn 1             -0.08163
pm Syn 1               1.677
vf Syn 1               1.073
Id Syn 1              0.3377
Iq Syn 1               1.546
vd Syn 1              0.2763
vq Syn 1               1.023
psid Syn 1             1.024
psiq Syn 1           -0.2765
p Syn 2                  0.4
q Syn 2               0.2509
pm Syn 2              0.4011
vf Syn 2               1.612
Id Syn 2              0.3726
Iq Syn 2              0.2557
vd Syn 2              0.4157
vq Syn 2              0.9588
psid Syn 2            0.9601
psiq Syn 2           -0.4176
p Syn 3                    0
q Syn 3               0.1904
pm Syn 3             0.00018
vf Syn 3                1.34
Id Syn 3              0.1885
Iq Syn 3             0.00014
vd Syn 3            -0.00075
vq Syn 3                1.01
psid Syn 3              1.01
psiq Syn 3          -0.00023
p Syn 4                   -0
q Syn 4                0.142
pm Syn 4             0.00029
vf Syn 4               1.733
Id Syn 4              0.1327
Iq Syn 4             0.00017
vd Syn 4            -0.00136
vq Syn 4                1.07
psid Syn 4              1.07
psiq Syn 4          -0.00082
p Syn 5                    0
q Syn 5               0.1551
pm Syn 5             0.00033
vf Syn 5               1.801
Id Syn 5              0.1423
Iq Syn 5             0.00019
vd Syn 5            -0.00143
vq Syn 5                1.09
psid Syn 5              1.09
psiq Syn 5          -0.00091
wref TG1 1                 1
pout TG1 1             1.677
pin TG1 1              1.677
wref TG1 2                 1
pout TG1 2            0.4011
pin TG1 2             0.4011
vref AVR 1             1.071
vref AVR 2             1.126
vref AVR 3             1.077
vref AVR 4             1.157
vref AVR 5              1.18
pw WTG4DC 1           0.3012
cp WTG4DC 1           0.4254
lamb WTG4DC 1          7.135
ilamb WTG4DC 1          9.51
pwa WTG4DC 1            0.75
isd WTG4DC 1          0.3984
vsd WTG4DC 1         0.00297
vsq WTG4DC 1         0.08688
ps WTG4DC 1              0.3
te WTG4DC 1           0.3442
pw WTG4DC 2           0.3012
cp WTG4DC 2           0.4254
lamb WTG4DC 2          7.135
ilamb WTG4DC 2          9.51
pwa WTG4DC 2            0.75
isd WTG4DC 2          0.3984
vsd WTG4DC 2         0.00297
vsq WTG4DC 2         0.08688
ps WTG4DC 2              0.3
te WTG4DC 2           0.3442
ws ConstWind 1        0.6992
ws ConstWind 2        0.6992
ref1 VSC 1                 1
ref2 VSC 1              1.06
vd VSC 1                1.06
vq VSC 1                  -0
p VSC 1               0.2994
q VSC 1              -0.1174
Idref VSC 1           0.2824
Iqref VSC 1          -0.1107
Idcy VSC 1                -0
adq VSC 1            -0.1108
ref1 VSC 2               0.3
ref2 VSC 2                 0
vd VSC 2               1.061
vq VSC 2                  -0
p VSC 2                  0.3
q VSC 2                    0
Idref VSC 2           0.2828
Iqref VSC 2               -0
Idcy VSC 2           -0.3002
adq VSC 2             -0.114

OTHER STATE VARIABLES:
                            

vC C 1                     1
vC C 2                     1
vC C 3                     1
vC C 4                     1
IL RLs 1-2           0.00022
IL RLs 2-4              -0.3
IL RLs 3-4             7e-05
IL RLs 1-3           -0.2998
xt BusFreq 1               0
w BusFreq 1                1
xt BusFreq 2               0
w BusFreq 2                1
xt BusFreq 3               0
w BusFreq 3                1
xt BusFreq 4               0
w BusFreq 4                1
xt BusFreq 5               0
w BusFreq 5                1
xt BusFreq 6               0
w BusFreq 6                1
xt BusFreq 7               0
w BusFreq 7                1
xt BusFreq 8               0
w BusFreq 8                1
xt BusFreq 9               0
w BusFreq 9                1
xt BusFreq 10              0
w BusFreq 10               1
xt BusFreq 11              0
w BusFreq 11               1
xt BusFreq 12              0
w BusFreq 12               1
xt BusFreq 13              0
w BusFreq 13               1
xt BusFreq 14              0
w BusFreq 14               1
delta Syn 1           0.2637
omega Syn 1                1
e1d Syn 1             0.1128
e1q Syn 1              1.057
e2d Syn 1              0.176
e2q Syn 1              1.037
delta Syn 2           0.3462
omega Syn 2                1
e1d Syn 2             0.2327
e1q Syn 2              1.077
e2d Syn 2             0.3622
e2q Syn 2              1.041
delta Syn 3          -0.1829
omega Syn 3                1
e1d Syn 3            0.00013
e1q Syn 3              1.069
e2d Syn 3             0.0002
e2q Syn 3              1.051
delta Syn 4          -0.1319
omega Syn 4                1
e1d Syn 4            0.00033
e1q Syn 4              1.197
e2d Syn 4            0.00074
e2q Syn 4              1.134
delta Syn 5          -0.1497
omega Syn 5                1
e1d Syn 5            0.00037
e1q Syn 5              1.226
e2d Syn 5            0.00082
e2q Syn 5              1.158
xg1 TG1 1              1.677
xg2 TG1 1              1.677
xg3 TG1 1              1.274
xg1 TG1 2             0.4011
xg2 TG1 2             0.4011
xg3 TG1 2             0.3048
vm AVR 1                1.06
vr1 AVR 1              1.075
vr2 AVR 1           -0.00215
vfout AVR 1            1.073
vm AVR 2               1.045
vr1 AVR 2              1.616
vr2 AVR 2           -0.00161
vfout AVR 2            1.612
vm AVR 3                1.01
vr1 AVR 3              1.343
vr2 AVR 3           -0.00134
vfout AVR 3             1.34
vm AVR 4                1.07
vr1 AVR 4              1.738
vr2 AVR 4           -0.00173
vfout AVR 4            1.733
vm AVR 5                1.09
vr1 AVR 5              1.807
vr2 AVR 5            -0.0018
vfout AVR 5            1.801
theta_p WTG4DC 1             0
omega_m WTG4DC 1         0.875
isq WTG4DC 1            3.44
theta_p WTG4DC 2             0
omega_m WTG4DC 2         0.875
isq WTG4DC 2            3.44
vw ConstWind 1        0.6992
vw ConstWind 2        0.6992
Nd VSC 1             -0.2996
Nq VSC 1             -0.1107
Idcx VSC 1           -0.2996
ud VSC 1               1.005
uq VSC 1             -0.1415
Id VSC 1              0.2824
Iq VSC 1             -0.1107
Md VSC 1             0.00071
Mq VSC 1            -0.00028
Nd VSC 2                  -0
Nq VSC 2                  -0
Idcx VSC 2                -0
ud VSC 2               1.062
uq VSC 2            -0.01697
Id VSC 2              0.2828
Iq VSC 2                  -0
Md VSC 2             0.00071
Mq VSC 2                  -0

